Circuit: * D:\UTN\Teoría de Circuitos II\Unidad 1 - Introducción\TPSemanal 1\Draft1.asc


Date: Wed Apr 26 17:51:33 2023
Total elapsed time: 0.008 seconds.

tnom = 27
temp = 27
method = trap
totiter = 0
traniter = 0
tranpoints = 0
accept = 0
rejected = 0
matrix size = 3
fillins = 1
solver = Normal

