Circuit: * D:\UTN\Teoría de Circuitos II\Unidad 1 - Introducción\TPSemanal 1\Pasatodo1erOrden.asc

Ignoring empty pin current: Ix(u1:1)
Ignoring empty pin current: Ix(u1:2)

Date: Mon Apr 10 11:03:50 2023
Total elapsed time: 0.003 seconds.

tnom = 27
temp = 27
method = trap
totiter = 0
traniter = 0
tranpoints = 0
accept = 0
rejected = 0
matrix size = 5
fillins = 1
solver = Normal

