Circuit: * D:\UTN\Teoría de Circuitos II\Unidad 2 - Análisis de Redes con Amplificadores Operacionales\Draft1.asc

Direct Newton iteration for .op point succeeded.

Date: Thu May 25 01:38:12 2023
Total elapsed time: 0.023 seconds.

tnom = 27
temp = 27
method = modified trap
totiter = 3256
traniter = 3249
tranpoints = 1587
accept = 1576
rejected = 11
matrix size = 4
fillins = 0
solver = Normal
Matrix Compiler1: 100 bytes object code size  0.0/0.0/[0.0]
Matrix Compiler2: 248 bytes object code size  0.0/0.0/[0.0]

