Circuit: * D:\UTN\Teoría de Circuitos II\Trabajos Prácticos Semanales\TPSemanal3\Tp-Semana3.asc

Ignoring empty pin current: Ix(u1:1)
Ignoring empty pin current: Ix(u1:2)

Date: Mon May 08 23:39:17 2023
Total elapsed time: 0.013 seconds.

tnom = 27
temp = 27
method = trap
totiter = 0
traniter = 0
tranpoints = 0
accept = 0
rejected = 0
matrix size = 6
fillins = 0
solver = Normal

